/*--------------------------------*- C++ -*----------------------------------*\
| =========                 |                                                 |
| \\      /  F ield         | OpenFOAM Extend Project: Open source CFD        |
|  \\    /   O peration     | Version:  3.1-ext                               |
|   \\  /    A nd           | Web:      www.extend-project.de                 |
|    \\/     M anipulation  |                                                 |
\*---------------------------------------------------------------------------*/
FoamFile
{
    version         2.0;
    format          ascii;
    class           dictionary;
    location        "constant/polyMesh";
    object          blockMeshDict;
}
// * * * * * * * * * * * * * * * * * * * * * * * * * * * * * * * * * * * * * //

convertToMeters 1;

xmin -1;
xmax  1;

ymin 0.00;
ymax 0.10;

zmin -0.6;
zmax  0.6;

// free surface
fsmin -0.1;
fsmax  0.1;

vertices
(
    ( $xmin $ymin $zmin )
    ( $xmax $ymin $zmin )
    ( $xmax $ymax $zmin )
    ( $xmin $ymax $zmin )

    ( $xmin $ymin $zmax )
    ( $xmax $ymin $zmax )
    ( $xmax $ymax $zmax )
    ( $xmin $ymax $zmax )

    ( $xmin $ymin $fsmin )
    ( $xmax $ymin $fsmin )
    ( $xmax $ymax $fsmin )
    ( $xmin $ymax $fsmin )

    ( $xmin $ymin $fsmax )
    ( $xmax $ymin $fsmax )
    ( $xmax $ymax $fsmax )
    ( $xmin $ymax $fsmax )
);

blocks
(
    hex (0 1 2 3 8 9 10 11)     ( 50 1 35) simpleGrading (1 1 0.2)
    hex (8 9 10 11 12 13 14 15) ( 50 1 20 ) simpleGrading (1 1 1)
    hex (12 13 14 15 4 5 6 7)   ( 50 1 35) simpleGrading (1 1 5)
);

edges
(
);

boundary
(
    inlet
    {
        type patch;
        faces
        (
            (0 8 11 3)
            (8 12 15 11)
            (12 4 7 15)
        );
    }

    bottom
    {
        type wall;
        faces
        (
            (0 1 2 3)
        );
    }


    outlet
    {
        type patch;
        faces
        (
            (1 9 10 2)
            (9 13 14 10)
            (13 5 6 14)
        );
    }

    atmosphere
    {
        type patch;
        faces
        (
            (4 5 6 7)
        );
    }

    frontBack
    {
        type empty;
        faces
        (
            (0 8 9 1)
            (8 12 13 9)
      	    (12 4 5 13)
    	    (3 11 10 2)
    	    (11 15 14 10)
    	    (15 7 6 14)
        );
    }

);

mergePatchPairs
();


// ************************************************************************* //
